#
# Copyright (C) 2005 Lehrstuhl fuer praktische Informatik, Universitaet Dortmund
# Copyright (C) 2005 Dragan Isakovic
#
# This program is free software; you can redistribute it and/or
# modify it under the terms of the GNU General Public License
# as published by the Free Software Foundation; either version 2
# of the License, or (at your option) any later version.
#
# This program is distributed in the hope that it will be useful,
# but WITHOUT ANY WARRANTY; without even the implied warranty of
# MERCHANTABILITY or FITNESS FOR A PARTICULAR PURPOSE.  See the
# GNU General Public License for more details.
#
# You should have received a copy of the GNU General Public License
# along with this program; if not, write to the Free Software
# Foundation, Inc., 59 Temple Place - Suite 330, Boston, MA  02111-1307, USA.
#

#
# Test parameters for the bus.
#

[General]
preload-ned-files = *.ned @../../nedfiles.lst
ini-warnings = yes
sim-time-limit = 5s

[Cmdenv]
express-mode = no

[Tkenv]
default-run = 1

[OutVectors]
**.enabled = yes

[Run 1]
network = fourOnBus
**.debug = true
**.unsetPosition = false
**.distance = 200
**.biterrors = true
**.biterrorRate = exponential(1)
**.writeScalars = true
**.hostA.sendTime = 0
**.hostB.sendTime = 0.000004
**.hostC.sendTime = 1
**.hostD.sendTime = 1#1
