#
# Copyright (C) 2005 Lehrstuhl fuer praktische Informatik, Universitaet Dortmund
# Copyright (C) 2005 Dragan Isakovic
#
# This program is free software; you can redistribute it and/or
# modify it under the terms of the GNU General Public License
# as published by the Free Software Foundation; either version 2
# of the License, or (at your option) any later version.
#
# This program is distributed in the hope that it will be useful,
# but WITHOUT ANY WARRANTY; without even the implied warranty of
# MERCHANTABILITY or FITNESS FOR A PARTICULAR PURPOSE.  See the
# GNU General Public License for more details.
#
# You should have received a copy of the GNU General Public License
# along with this program; if not, write to the Free Software
# Foundation, Inc., 59 Temple Place - Suite 330, Boston, MA  02111-1307, USA.
#

#
# Test parameters for a ControlNet.
#

[General]
preload-ned-files = *.ned @../../nedfiles.lst
ini-warnings = yes
sim-time-limit = 2s

[Cmdenv]
express-mode = no

[Tkenv]
default-run = 1

[OutVectors]
**.enabled = yes

[Run 1]
network = fourOnControlNet

### common parameters
**.debug = true
**.bitrate = 5000000
**.writeScalars = true
**.accuracyFP = 0.000000000001

### ControlNetBus parameters
**.bus.unsetPosition = false
**.bus.distance = 200
**.bus.biterrors = true
**.bus.biterrorRate = 0#exponential(1)
# logging/measurement
# - 1 = off, 0 = only vector/statistics, >0 = vector/statistics with period >0
**.messagesVector = -1
**.messagesStatistics = -1

### ControlNetClient parameters
**.mac.GB = 0.00005
**.mac.IFG = 0.000005
**.mac.NUT = 0.002
**.mac.SMAX = 4
**.mac.UMAX = 4
**.mac.maximumLength = 3000
**.mac.propagationSpeed = 200000000
**.mac.maxScheduledQueueSize = 3
**.mac.maxUnscheduledQueueSize = 3
# logging/measurement
# - 1 = off, 0 = only vector/statistics, >0 = vector/statistics with period >0
**.mac.framesSentVector = 0.001
**.mac.framesSentStatistics = 0.001
**.mac.framesReceivedVector = 0.001
**.mac.framesReceivedStatistics = 0.001
**.mac.bitsSentVector = 0.001
**.mac.bitsSentStatistics = 0.001
**.mac.bitsReceivedVector = 0.001
**.mac.bitsReceivedStatistics = 0.001
**.mac.messagesPassedVector = 0.001
**.mac.messagesPassedStatistics = 0.001
**.mac.messagesReceivedVector = 0.001
**.mac.messagesReceivedStatistics = 0.001
**.mac.messagesDroppedBOVector = 0.001
**.mac.messagesDroppedBOStatistics = 0.001
**.mac.messagesDroppedBEVector = 0.001
**.mac.messagesDroppedBEStatistics = 0.001
**.mac.framesRetransmittedVector = 0.001
**.mac.framesRetransmittedStatistics = 0.001
**.mac.waitingTimeVector = 0
**.mac.waitingTimeStatistics = 0.001
**.mac.blockingTimeVector = 0
**.mac.blockingTimeStatistics = 0.001
**.mac.queueWaitingTimeVector = 0
**.mac.queueWaitingTimeStatistics = 0.001
**.mac.transmittingTimeVector = 0
**.mac.transmittingTimeStatistics = 0.001
**.mac.retransmittingTimeVector = 0
**.mac.retransmittingTimeStatistics = 0.001
**.mac.messageDelayVector = 0
**.mac.messageDelayStatistics = 0.001
**.mac.hosts = 4
**.mac.dividedStatistics = true

### MACLogging options
**.controlnetMACLogging.sendingHosts = 4
**.controlnetMACLogging.receivingHosts = 3

### client timings
**.host_1.client.sendTime = 0
**.host_2.client.sendTime = 0
**.host_3.client.sendTime = 0
**.host_4.client.sendTime = 0
**.client.period = 0.002
**.client.length = 10
